Localizador/34Bus/ieee34-1_VLL.Txt

SYMMETRICAL COMPONENT PHASE-PHASE VOLTAGES BY BUS (for 3-phase buses)

Bus        Mag:   V1 (kV)    p.u.     V2 (kV)   %V2/V1    V0 (kV)    %V0/V1

sourcebus     120.1      1.741    0.06418    0.05342 1.494E-014 1.243E-014
800           26.01      1.044    0.01429    0.05493 3.279E-015 1.261E-014
802           25.63      1.029    0.02572     0.1003 3.279E-015 1.279E-014
806           25.38      1.019    0.04129     0.1627 3.859E-015 1.52E-014
808           25.02      1.005    0.07181      0.287 4.067E-015 1.626E-014
810           14.45     0.5804          0          0         0         0
812           24.37     0.9788     0.1336     0.5484 3.279E-015 1.346E-014
814           20.32     0.8162      0.529      2.603 2.274E-015 1.119E-014
814r          22.31     0.8959     0.5852      2.623 3.279E-015 1.47E-014
850           22.31     0.8958     0.5854      2.624 2.912E-015 1.305E-014
816           22.25     0.8937     0.5907      2.655 3.279E-015 1.474E-014
818           11.68      0.469          0          0         0         0
824           20.75     0.8335      0.539      2.597 2.876E-015 1.386E-014
820           8.921     0.3583          0          0         0         0
822           8.578     0.3445          0          0         0         0
826           12.29     0.4937          0          0         0         0
828           20.64     0.8288     0.5383      2.608 4.29E-015 2.079E-014
830           17.83     0.7161     0.5243      2.941 2.572E-015 1.443E-014
854           17.76     0.7134     0.5233      2.946 2.034E-015 1.145E-014
832           14.22     0.5712     0.5546        3.9 2.912E-015 2.047E-014
858           13.74     0.5518     0.5593       4.07 2.274E-015 1.655E-014
834           13.18     0.5293     0.5651      4.288 1.286E-015 9.76E-015
860           13.11     0.5267      0.568      4.331 2.274E-015 1.734E-014
842           13.16     0.5286     0.5639      4.284 2.274E-015 1.727E-014
836           13.08     0.5252     0.5585      4.271 1.286E-015 9.836E-015
840           13.07      0.525     0.5575      4.265 1.929E-015 1.476E-014
862           13.08     0.5251     0.5578      4.266 1.017E-015 7.777E-015
844           13.09     0.5256     0.5575       4.26 1.017E-015 7.769E-015
846           13.05     0.5241     0.5458      4.182 2.274E-015 1.742E-014
848           13.05      0.524     0.5452      4.178 1.929E-015 1.479E-014
852r          14.22     0.5713     0.5546      3.899 1.929E-015 1.356E-014
888           1.926      0.463    0.06549        3.4 2.842E-016 1.476E-014
856           10.51     0.4219          0          0         0         0
852           12.96     0.5206     0.5046      3.892 1.929E-015 1.488E-014
864           7.334     0.2946          0          0         0         0
838            7.61     0.3056          0          0         0         0
890               1     0.2404    0.05302      5.301 1.421E-016 1.421E-014
